/*--------------------------------*- C++ -*----------------------------------*\
| =========                 |                                                 |
| \\      /  F ield         | OpenFOAM: The Open Source CFD Toolbox           |
|  \\    /   O peration     | Version:  3.0.0                                 |
|   \\  /    A nd           | Web:      www.OpenFOAM.org                      |
|    \\/     M anipulation  |                                                 |
\*---------------------------------------------------------------------------*/
FoamFile
{
    version     2.0;
    format      ascii;
    class       extendedFeatureEdgeMesh;
    location    "constant/extendedFeatureEdgeMesh";
    object      r0.extendedFeatureEdgeMesh;
}
// * * * * * * * * * * * * * * * * * * * * * * * * * * * * * * * * * * * * * //

// points

36
(
(0.56568599 0.141422 0)
(0.70710701 7.16496e-07 0)
(0.70710701 7.16496e-07 -0.5)
(7.16496e-07 0.70710701 -0.5)
(0.141422 0.56568599 0)
(7.16496e-07 0.70710701 0)
(0.14142101 -0.56568497 0)
(-5.5511198e-17 -0.70710701 0)
(-5.5511198e-17 -0.70710701 -0.5)
(0.56568497 -0.14142101 0)
(-0.56568497 -0.14142101 0)
(-0.70710701 5.5511198e-17 0)
(-0.70710701 5.5511198e-17 -0.5)
(-0.14142101 -0.56568497 0)
(-0.14142101 0.56568497 0)
(-0.56568497 0.14142101 0)
(-0.42426401 5.5511198e-17 0)
(-5.5511198e-17 -0.42426401 0)
(0.42426401 -5.5511198e-17 0)
(5.5511198e-17 0.42426401 0)
(-0.14142101 0.56568497 -0.34999999)
(-0.56568497 0.14142101 -0.34999999)
(5.5511198e-17 0.42426401 -0.34999999)
(-0.42426401 5.5511198e-17 -0.34999999)
(0.42426401 -5.5511198e-17 -0.34999999)
(0.141422 0.56568599 -0.34999999)
(0.56568599 0.141422 -0.34999999)
(-5.5511198e-17 -0.42426401 -0.34999999)
(0.56568497 -0.14142101 -0.34999999)
(0.14142101 -0.56568497 -0.34999999)
(-0.14142101 -0.56568497 -0.34999999)
(-0.56568497 -0.14142101 -0.34999999)
(5.5511198e-17 0.42426401 -0.5)
(0.42426401 -5.5511198e-17 -0.5)
(-5.5511198e-17 -0.42426401 -0.5)
(-0.42426401 5.5511198e-17 -0.5)
)

// edges

60
(
(20 21)
(23 22)
(22 24)
(26 25)
(24 27)
(29 28)
(27 23)
(31 30)
(26 0)
(0 1)
(1 2)
(2 3)
(4 25)
(3 5)
(5 4)
(29 6)
(6 7)
(7 8)
(8 2)
(9 28)
(1 9)
(31 10)
(10 11)
(11 12)
(12 8)
(13 30)
(7 13)
(20 14)
(14 5)
(3 12)
(15 21)
(11 15)
(33 32)
(34 33)
(35 34)
(32 35)
(23 16)
(16 10)
(15 16)
(27 17)
(17 6)
(13 17)
(24 18)
(18 0)
(9 18)
(22 19)
(19 14)
(4 19)
(22 20)
(21 23)
(25 22)
(24 26)
(28 24)
(27 29)
(30 27)
(23 31)
(22 32)
(33 24)
(34 27)
(35 23)
)

// concaveStart mixedStart nonFeatureStart
20 20 36
// internalStart flatStart openStart multipleStart
48 60 60 60
// normals

72
(
(0 0 1)
(-0.70710678 0.70710678 1.469293e-06)
(0 0 1)
(0.70710678 -0.70710678 0)
(-0 0 1)
(-0.70710678 -0.70710678 0)
(0 0 1)
(0.70710678 0.70710678 -1.2585587e-06)
(0 0 1)
(-0.70710678 0.70710678 0)
(0 0 1)
(0.70710678 -0.70710678 4.8468874e-06)
(0 0 1)
(0.70710678 0.70710678 0)
(0 0 1)
(-0.70710678 -0.70710678 4.8468874e-06)
(0.70710745 0.70710611 0)
(-0.70710686 0.70710671 0)
(0 0 1)
(0.70710745 0.70710611 0)
(0.707106 -0.70710756 0)
(0.70710678 0.70710678 -1.2585587e-06)
(0 0 -1)
(0.70710611 0.70710745 -0)
(0.70710671 -0.70710686 0)
(0.70710611 0.70710745 0)
(-0.70710756 0.707106 0)
(0 0 1)
(0.70710935 -0.70710421 0)
(0.70710667 0.70710689 0)
(0 0 1)
(0.70710935 -0.70710421 0)
(-0.70710935 -0.70710421 0)
(0.70710714 -0.70710642 2.1448138e-06)
(0 0 -1)
(0.707106 -0.70710756 0)
(-0.70710689 -0.70710667 -0)
(0 -0 1)
(-0.70710421 -0.70710935 -0)
(0.70710689 -0.70710667 0)
(0 -0 1)
(-0.70710421 -0.70710935 0)
(-0.70710421 0.70710935 0)
(-0.70710678 -0.70710678 4.8468874e-06)
(-0 -0 -1)
(-0.70710935 -0.70710421 0)
(-0.70710667 0.70710689 0)
(-0 0 1)
(-0.70710756 0.707106 0)
(-0.70710667 -0.70710689 0)
(-0.70710642 0.70710714 4.1713683e-06)
(-0 0 -1)
(-0.70710421 0.70710935 0)
(0.70710689 0.70710667 0)
(0 0 1)
(0 0 -1)
(-0.70710678 -0.70710678 0)
(0 -0 -1)
(-0.70710678 0.70710678 0)
(-0 -0 -1)
(0.70710678 0.70710678 -0)
(0 0 -1)
(0.70710678 -0.70710678 0)
(0.70710689 -0.70710667 0)
(0.70710689 0.70710667 0)
(0.70710667 0.70710689 0)
(-0.70710667 0.70710689 0)
(-0.70710686 0.70710671 0)
(-0.70710689 -0.70710667 0)
(-0.70710667 -0.70710689 -0)
(0.70710671 -0.70710686 0)
(0 -0 1)
)

// normal volume types

72
(
0
0
0
0
0
0
0
0
0
0
0
0
0
0
0
0
0
0
0
0
0
0
0
0
0
0
0
0
0
0
0
0
0
0
0
0
0
0
0
0
0
0
0
0
0
0
0
0
0
0
0
0
0
0
0
0
0
0
0
0
0
0
0
0
0
0
0
0
0
0
0
0
)

// normalDirections

60
(
2(1 -1)
2(1 -1)
2(1 -1)
2(1 -1)
2(1 -1)
2(1 -1)
2(1 -1)
2(1 -1)
2(1 -1)
2(1 -1)
2(1 -1)
2(1 -1)
2(1 -1)
2(1 -1)
2(1 -1)
2(1 -1)
2(1 -1)
2(1 -1)
2(1 -1)
2(1 -1)
2(1 -1)
2(1 -1)
2(1 -1)
2(1 -1)
2(1 -1)
2(1 -1)
2(1 -1)
2(1 -1)
2(1 -1)
2(1 -1)
2(1 -1)
2(1 -1)
2(1 -1)
2(1 -1)
2(1 -1)
2(1 -1)
2(1 -1)
2(1 -1)
2(1 -1)
2(1 -1)
2(1 -1)
2(1 -1)
2(1 -1)
2(1 -1)
2(1 -1)
2(1 -1)
2(1 -1)
2(1 -1)
2(1 -1)
2(1 -1)
2(1 -1)
2(1 -1)
2(1 -1)
2(1 -1)
2(1 -1)
2(1 -1)
2(1 -1)
2(1 -1)
2(1 -1)
2(1 -1)
)

// edgeNormals

60
(
2(0 1)
2(2 3)
2(4 5)
2(6 7)
2(8 9)
2(10 11)
2(12 13)
2(14 15)
2(16 17)
2(16 18)
2(19 20)
2(21 22)
2(23 24)
2(25 26)
2(25 27)
2(28 29)
2(28 30)
2(31 32)
2(33 34)
2(35 36)
2(20 37)
2(38 39)
2(38 40)
2(41 42)
2(43 44)
2(45 46)
2(32 47)
2(48 49)
2(48 27)
2(50 51)
2(52 53)
2(42 54)
2(55 56)
2(57 58)
2(59 60)
2(61 62)
2(63 64)
2(63 40)
2(53 54)
2(65 66)
2(65 30)
2(46 47)
2(67 68)
2(67 18)
2(36 37)
2(69 70)
2(69 71)
2(24 71)
2(0 49)
2(2 64)
2(4 70)
2(6 17)
2(8 68)
2(10 29)
2(12 66)
2(14 39)
2(56 3)
2(5 58)
2(9 60)
2(13 62)
)

// featurePointNormals

36
(
3(16 17 18)
3(16 18 20)
3(19 20 22)
3(21 22 26)
3(23 24 27)
3(25 26 27)
3(28 29 30)
3(28 30 32)
3(31 32 34)
3(35 36 37)
3(38 39 40)
3(38 40 42)
3(41 42 44)
3(45 46 47)
3(48 49 27)
3(52 53 54)
3(63 64 40)
3(65 66 30)
3(67 68 18)
3(69 70 71)
3(0 1 49)
3(0 1 53)
3(2 3 5)
3(2 3 13)
3(4 5 9)
3(6 7 24)
3(6 7 17)
3(8 9 13)
3(10 11 36)
3(10 11 29)
3(14 15 46)
3(14 15 39)
3(55 56 62)
3(55 56 58)
3(57 58 60)
3(59 60 62)
)

// featurePointEdges

36
(
3(8 43 9)
3(10 20 9)
3(11 18 10)
3(13 29 11)
3(14 47 12)
3(13 28 14)
3(15 40 16)
3(17 26 16)
3(18 24 17)
3(20 44 19)
3(21 37 22)
3(23 31 22)
3(24 29 23)
3(26 41 25)
3(27 46 28)
3(31 38 30)
3(36 38 37)
3(39 41 40)
3(42 44 43)
3(45 47 46)
3(0 27 48)
3(49 30 0)
6(1 56 2 50 45 48)
6(1 59 6 55 36 49)
6(51 42 52 4 57 2)
3(3 12 50)
3(3 8 51)
6(53 39 54 6 58 4)
3(5 19 52)
3(5 15 53)
3(7 25 54)
3(7 21 55)
3(35 56 32)
3(33 57 32)
3(34 58 33)
3(35 59 34)
)

// regionEdges
0()


// ************************************************************************* //
