/*--------------------------------*- C++ -*----------------------------------*\
| =========                 |                                                 |
| \\      /  F ield         | OpenFOAM: The Open Source CFD Toolbox           |
|  \\    /   O peration     | Version:  3.0.0                                 |
|   \\  /    A nd           | Web:      www.OpenFOAM.org                      |
|    \\/     M anipulation  |                                                 |
\*---------------------------------------------------------------------------*/
FoamFile
{
    version     2.0;
    format      ascii;
    class       dictionary;
    object      fvSolution;
}
// * * * * * * * * * * * * * * * * * * * * * * * * * * * * * * * * * * * * * //

solvers
{
    cellMotionU
    {
        solver          PCG;
        preconditioner  DIC;
        tolerance       1e-08;
        relTol          0;
    }
    cellDisplacement
    {
        solver          GAMG;
        tolerance       1e-08;
        relTol          0;
        smoother        GaussSeidel;
        cacheAgglomeration true;
        nCellsInCoarsestLevel 50;
        agglomerator    faceAreaPair;
        mergeLevels     1;
    }

    pcorr
    {
        solver          PCG;
        preconditioner
        {
            preconditioner  GAMG;
            tolerance       1e-6;
            relTol          0;
            smoother        DICGaussSeidel;
            nPreSweeps      0;
            nPostSweeps     2;
            nFinestSweeps   2;
            cacheAgglomeration false;
            nCellsInCoarsestLevel 50;
            agglomerator    faceAreaPair;
            mergeLevels     1;
        }

        tolerance       1e-06;
        relTol          0;
        maxIter         100;
    }

    p
    {
        solver        GAMG;
        tolerance     1e-6;
        relTol        0.05;

        smoother        GaussSeidel;
        nPreSweeps      0;
        nPostSweeps     2;

        cacheAgglomeration true;

        nCellsInCoarsestLevel 50;
        agglomerator    faceAreaPair;
        mergeLevels     1;
    };

    pFinal
    {
        $p;
        relTol          0;
    }

    "(U|k|omega|nuTilda).*"
    {
        solver          smoothSolver;
        smoother        symGaussSeidel;
        tolerance       1e-7;
        relTol          0;
        nSweeps         1;
    }
}

PIMPLE
{
    momentumPredictor yes;
    nCorrectors     2;
    nNonOrthogonalCorrectors 2;
    nAlphaCorr      2;
    nAlphaSubCycles 2;
    cAlpha          1;
    correctPhi      yes;
}

relaxationFactors
{
    "U.*"               1;

    // for SpalartAllmaras
    "nuTilda.*"         1;

    // for kOmegaSSTDES
    "k.*"               1;
    "omega.*"           1;
}

// ************************************************************************* //
